
#======================================================================
# CRYSTAL DATA
#----------------------------------------------------------------------
data_VESTA_phase_1

_chemical_name_common                  'ErOBr '
_cell_length_a                         3.780620
_cell_length_b                         3.780620
_cell_length_c                         8.188070
_cell_angle_alpha                      90.000000
_cell_angle_beta                       90.000000
_cell_angle_gamma                      90.000000
_cell_volume                           117.032812
_space_group_name_H-M_alt              'P 4/n m m'
_space_group_IT_number                 129

loop_
_space_group_symop_operation_xyz
   'x, y, z'
   '-x, -y, -z'
   '-x+1/2, -y+1/2, z'
   'x+1/2, y+1/2, -z'
   '-y+1/2, x, z'
   'y+1/2, -x, -z'
   'y, -x+1/2, z'
   '-y, x+1/2, -z'
   '-x, y+1/2, -z'
   'x, -y+1/2, z'
   'x+1/2, -y, -z'
   '-x+1/2, y, z'
   'y+1/2, x+1/2, -z'
   '-y+1/2, -x+1/2, z'
   '-y, -x, -z'
   'y, x, z'

loop_
   _atom_site_label
   _atom_site_occupancy
   _atom_site_fract_x
   _atom_site_fract_y
   _atom_site_fract_z
   _atom_site_adp_type
   _atom_site_U_iso_or_equiv
   _atom_site_type_symbol
   Er1        1.0     0.750000     0.750000     0.138870    Uiso  ? Er
   O1         1.0     0.750000     0.250000     0.000000    Uiso  ? O
   Br1        1.0     0.750000     0.750000     0.669080    Uiso  ? Br
