# This file was generated by ISODISTORT, version 6.12.1
# Harold T. Stokes, Branton J. Campbell, David Tanner, Dorian M. Hatch
# Brigham Young University, Provo, Utah, USA
#
# Space Group: 225 Fm-3m      Oh-5
# Default space-group preferences: monoclinic axes a(b)c, monoclinic cell choice 1, orthorhombic axes abc, origin choice 2, hexagonal axes, SSG standard setting
# Lattice parameters: a= 6.17590, b= 6.17590, c= 6.17590, alpha= 90.00000, beta= 90.00000, gamma= 90.00000
# Tb1 4a (0,0,0)
# Sb1 4b (1/2,1/2,1/2)
# Include strain, magnetic Tb3+ distortions
# k point: L, k9 (1/2,1/2,1/2)
# IR: mL2+, mk9t3
#  P1   (a;0;0;0) 167.108 R-3c.1'_c[R-3m], basis={(-1/2,0,1/2),(0,1/2,-1/2),(-2,-2,-2)}, origin=(0,0,0), s=2, i=8, k-active= (1/2,1/2,1/2)
# Order parameter values:
#  Fm-3m[1/2,1/2,1/2]mL2+(a;0;0;0) 167.108 R-3c.1'_c[R-3m] s=2 i=8
#     [Tb1:a:mag]T1g(a):  1.00000
#  Fm-3m[0,0,0]GM1+(a) 31.127 Pm'n'2_1 s=1 i=1
#     strain(a):  0.00300
#  Fm-3m[0,0,0]GM5+(a,a,a) 26.68 Pm'c2_1' s=1 i=4
#     strain(a):  0.00000

data_isodistort-output

_cell_length_a     4.37458
_cell_length_b     4.37458
_cell_length_c     21.43100
_cell_angle_alpha  90.00000
_cell_angle_beta   90.00000
_cell_angle_gamma  120.00000
_cell_volume       355.17855

_space_group_magn.number_BNS "167.108"
_space_group_magn.name_UNI "R-3c.1'_c[R-3m]"
_space_group_magn.name_BNS "R_I-3c"
_space_group_magn.number_OG "166.7.1333"
_space_group_magn.name_OG "R_R-3m'"
_space_group_magn.point_group_number_Litvin "20.2.72"
_space_group_magn.point_group_name_UNI "-3m.1'"

loop_
_space_group_magn_transforms.id
_space_group_magn_transforms.Pp_abc
_space_group_magn_transforms.source
1 a,b,c;0,0,0 "BNS"
2 -a,-b,1/2c;0,0,0 "OG"

loop_
_space_group_symop_magn_operation.id
_space_group_symop_magn_operation.xyz
1 x,y,z,+1 
2 -y,x-y,z,+1 
3 -x+y,-x,z,+1 
4 y,x,-z+1/2,+1 
5 -x,-x+y,-z+1/2,+1 
6 x-y,-y,-z+1/2,+1 
7 -x,-y,-z,+1 
8 y,-x+y,-z,+1 
9 x-y,x,-z,+1 
10 -y,-x,z+1/2,+1 
11 x,x-y,z+1/2,+1 
12 -x+y,y,z+1/2,+1 

loop_
_space_group_symop_magn_centering.id
_space_group_symop_magn_centering.xyz
1 x,y,z,+1 
2 x,y,z+1/2,-1 
3 x+1/3,y+2/3,z+2/3,+1 
4 x+1/3,y+2/3,z+1/6,-1 
5 x+2/3,y+1/3,z+1/3,+1 
6 x+2/3,y+1/3,z+5/6,-1 

loop_
_atom_site_label
_atom_site_type_symbol
_atom_site_symmetry_multiplicity
_atom_site_Wyckoff_symbol
_atom_site_fract_x
_atom_site_fract_y
_atom_site_fract_z
_atom_site_occupancy
_atom_site_fract_symmform
Tb1_1 Tb3+   6 a  0.00000  0.00000  0.00000  1.00000 0,0,0 
Sb1_1 Sb3-   6 b  0.00000  0.00000  0.25000  1.00000 0,0,0 

loop_
_atom_site_moment.label
_atom_site_moment.crystalaxis_x
_atom_site_moment.crystalaxis_y
_atom_site_moment.crystalaxis_z
_atom_site_moment.symmform
Tb1_1  0.00000  0.00000 -0.70833 0,0,Mz 

_iso_displacivemode_number    0


_iso_magneticmode_number    1

loop_
_iso_magneticmode_ID
_iso_magneticmode_label
_iso_magneticmode_value
   1 Fm-3m[1/2,1/2,1/2]mL2+(a;0;0;0)[Tb1:a:mag]T1g(a)  1.00000

loop_
_iso_magneticmodenorm_ID
_iso_magneticmodenorm_value
   1  0.03305

loop_
_iso_deltamoment_ID
_iso_deltamoment_label
_iso_deltamoment_value
   1 Tb1_1_dmz  -0.70833

loop_
_iso_moment_label
_iso_moment_formula
Tb1_1_mx            "0"
Tb1_1_my            "0"
Tb1_1_mz            "0 + Tb1_1_dmz"
Sb1_1_mx            "0"
Sb1_1_my            "0"
Sb1_1_mz            "0"

# matrix conversion: deltamoments(lattice units) = matrix.(modeamplitudes*modenormfactors)
# Note that deltamoment_i(crystalaxis units) = deltamoment_i(lattice units)*strained_cell_length_i
# Square matrix with _iso_magneticmode_number rows and columns

loop_
_iso_magneticmodematrix_row
_iso_magneticmodematrix_col
_iso_magneticmodematrix_value
    1    1  -1.00000

_iso_rotationalmode_number    0


_iso_occupancymode_number    0

_iso_strainmode_number    2

loop_
_iso_strainmode_ID
_iso_strainmode_label
_iso_strainmode_value
   1 Fm-3m[0,0,0]GM1+(a)strain(a)  0.00300
   2 Fm-3m[0,0,0]GM5+(a,a,a)strain(a)  0.00000

loop_
_iso_strainmodenorm_ID
_iso_strainmodenorm_value
   1  0.57735
   2  0.81650

loop_
_iso_strain_ID
_iso_strain_label
_iso_strain_value
   1 E_1    0.00300
   2 E_2    0.00300
   3 E_3    0.00300
   4 E_4    0.00000
   5 E_5    0.00000
   6 E_6    0.00000

# matrix conversion: strains(parent) = matrix * modeamplitudes
# Rectangular matrix with 6 rows and _iso_strainmode_number columns

loop_
_iso_strainmodematrix_row
_iso_strainmodematrix_col
_iso_strainmodematrix_value
    1    1    1.00000
    2    1    1.00000
    3    1    1.00000
    4    2    1.00000
    5    2    1.00000
    6    2    1.00000

# end of structure file
# end of cif
