data_I
_chemical_formula_sum                    'Fe2 O4 Zn1'
_symmetry_cell_setting                   tetragonal
_symmetry_space_group_name_H-M           'I -4 2 m'
_symmetry_space_group_name_Hall          'I -4;2'
_symmetry_Int_Tables_number              121

loop_
 _space_group_symop.magn_operation_id
 _space_group_symop.magn_operation_xyz
 1   x,y,z,+1
 2   -x,-y,z,+1
 3   y,-x,-z,+1
 4   -y,x,-z,+1
 5   -x,y,-z,+1
 6   x,-y,-z,+1
 7   -y,-x,z,+1
 8   y,x,z,+1

loop_
 _space_group_symop.magn_centering_id
 _space_group_symop.magn_centering_xyz
 1   x,y,z,+1
 2   x,y,z+1/2,-1
 3   x+1/2,y+1/2,z+1/2,+1
 4   x+1/2,y+1/2,z,-1

_cell_length_a                           8.4337(3)
_cell_length_b                           8.4337(3)
_cell_length_c                           16.8674(6)
_cell_angle_alpha                        90
_cell_angle_beta                         90
_cell_angle_gamma                        90
_cell_volume                             1199.73(7)

loop_
 _atom_type_symbol
 _atom_type_magn_oxidation_number
 _atom_type_scat_length_neutron
 _atom_type_scat_source
 Fe Fe3+    9.450 International_Tables_Vol_C
 O  .    5.803 International_Tables_Vol_C
 Zn .    5.680 International_Tables_Vol_C

loop_
 _atom_site_label
 _atom_site_type_symbol
 _atom_site_fract_x
 _atom_site_fract_y
 _atom_site_fract_z
 _atom_site_adp_type
 _atom_site_U_iso_or_equiv
 _atom_site_site_symmetry_multiplicity
 _atom_site_occupancy
 _atom_site_calc_flag
 _atom_site_refinement_flags
 _atom_site_disorder_assembly
 _atom_site_disorder_group
  Fe_1 Fe -0.37408 -0.37408 0.43704 Uiso 0.0005 16 1 d . . .
  Fe_4 Fe -0.37408 -0.87408 0.68704 Uiso 0.0005 16 1 d . . .
  O1_1 O -0.13678 -0.13678 0.31839 Uiso 0.0016 16 1 d . . .
  O1_4 O -0.13678 -0.63678 0.56839 Uiso 0.0016 16 1 d . . .
  O2_1 O -0.6161 -0.6161 0.55805 Uiso 0.0018 16 1 d . . .
  O2_4 O -0.6161 -1.1161 0.80805 Uiso 0.0018 16 1 d . . .
  Zn1_1 Zn 0 0 0.25 Uiso 0.0002 4 1 d . . .
  Zn1_4 Zn 0 -0.5 0.5 Uiso 0.0002 4 1 d . . .
  Zn2 Zn 0.25 0.25 0.125 Uiso 0.0002 8 1 d . . .

loop_
 _atom_site_moment_label
 _atom_site_moment_crystalaxis_x
 _atom_site_moment_crystalaxis_y
 _atom_site_moment_crystalaxis_z
 Fe_1 1.8361 -1.8361 0
 Fe_4 2.4049 2.4049 -0.5071

